Distribution/8500Node/DSSfiles/IEEE8500u_EXP_POWERS.CSV
Element, Terminal, P(kW), Q(kvar),  P_Normal, Q_Normal, P_Emergency, Q_Emergency
"Line.HVMV_SUB_CONNECTOR",   1,         0.0,         0.0,         0.0,         0.0,         0.0,         0.0
"Line.HVMV_SUB_CONNECTOR",   2,         0.0,         0.0
"Line.LN5502549-1"      ,   1,         0.0,         0.0,         0.0,         0.0,         0.0,         0.0
"Line.LN5502549-1"      ,   2,         0.0,         0.0
"Line.LN6259988-1"      ,   1,         0.0,         0.0,         0.0,         0.0,         0.0,         0.0
"Line.LN6259988-1"      ,   2,         0.0,         0.0
"Line.LN6077796-1"      ,   1,         0.0,         0.0,         0.0,         0.0,         0.0,         0.0
"Line.LN6077796-1"      ,   2,         0.0,         0.0
"Line.LN5835135-2"      ,   1,         0.0,         0.0,         0.0,         0.0,         0.0,         0.0
"Line.LN5835135-2"      ,   2,         0.0,         0.0
"Line.LN5896826-1"      ,   1,         0.0,         0.0,         0.0,         0.0,         0.0,         0.0
"Line.LN5896826-1"      ,   2,         0.0,         0.0
"Line.LN5714038-1"      ,   1,         0.0,         0.0,         0.0,         0.0,         0.0,         0.0
"Line.LN5714038-1"      ,   2,         0.0,         0.0
"Line.LN5653457-1"      ,   1,         0.0,         0.0,         0.0,         0.0,         0.0,         0.0
"Line.LN5653457-1"      ,   2,         0.0,         0.0
"Line.LN5835173-1"      ,   1,         0.0,         0.0,         0.0,         0.0,         0.0,         0.0
"Line.LN5835173-1"      ,   2,         0.0,         0.0
"Line.LN6321415-1"      ,   1,         0.0,         0.0,         0.0,         0.0,         0.0,         0.0
"Line.LN6321415-1"      ,   2,         0.0,         0.0
"Line.LN5565092-1"      ,   1,         0.0,         0.0,         0.0,         0.0,         0.0,         0.0
"Line.LN5565092-1"      ,   2,         0.0,         0.0
"Line.LN6073648-1"      ,   1,         0.0,         0.0,         0.0,         0.0,         0.0,         0.0
"Line.LN6073648-1"      ,   2,         0.0,         0.0
"Line.LN5774457-1"      ,   1,         0.0,         0.0,         0.0,         0.0,         0.0,         0.0
"Line.LN5774457-1"      ,   2,         0.0,         0.0
"Line.LN5534966-3"      ,   1,         0.0,         0.0,         0.0,         0.0,         0.0,         0.0
"Line.LN5534966-3"      ,   2,         0.0,         0.0
"Line.LN5859996-1"      ,   1,         0.0,         0.0,         0.0,         0.0,         0.0,         0.0
"Line.LN5859996-1"      ,   2,         0.0,         0.0
"Line.LN6138610-2"      ,   1,         0.0,         0.0,         0.0,         0.0,         0.0,         0.0
"Line.LN6138610-2"      ,   2,         0.0,         0.0
"Line.LN6258435-3"      ,   1,         0.0,         0.0,         0.0,         0.0,         0.0,         0.0
"Line.LN6258435-3"      ,   2,         0.0,         0.0
"Line.LN5804790-1"      ,   1,         0.0,         0.0,         0.0,         0.0,         0.0,         0.0
"Line.LN5804790-1"      ,   2,         0.0,         0.0
"Line.LN6900591-14"     ,   1,         0.0,         0.0,         0.0,         0.0,         0.0,         0.0
"Line.LN6900591-14"     ,   2,         0.0,         0.0
"Line.LN6409873-1"      ,   1,         0.0,         0.0,         0.0,         0.0,         0.0,         0.0
"Line.LN6409873-1"      ,   2,         0.0,         0.0
"Line.LN6014135-1"      ,   1,         0.0,         0.0,         0.0,         0.0,         0.0,         0.0
"Line.LN6014135-1"      ,   2,         0.0,         0.0
"Line.LN6077784-1"      ,   1,         0.0,         0.0,         0.0,         0.0,         0.0,         0.0
"Line.LN6077784-1"      ,   2,         0.0,         0.0
"Line.LN5744338-1"      ,   1,         0.0,         0.0,         0.0,         0.0,         0.0,         0.0
"Line.LN5744338-1"      ,   2,         0.0,         0.0
"Line.LN6991381-4"      ,   1,         0.0,         0.0,         0.0,         0.0,         0.0,         0.0
"Line.LN6991381-4"      ,   2,         0.0,         0.0
"Line.LN5774480-1"      ,   1,         0.0,         0.0,         0.0,         0.0,         0.0,         0.0
"Line.LN5774480-1"      ,   2,         0.0,         0.0
"Line.LN5986938-3"      ,   1,         0.0,         0.0,         0.0,         0.0,         0.0,         0.0
"Line.LN5986938-3"      ,   2,         0.0,         0.0
"Line.LN5894230-1"      ,   1,         0.0,         0.0,         0.0,         0.0,         0.0,         0.0
"Line.LN5894230-1"      ,   2,         0.0,         0.0
"Line.LN5683858-3"      ,   1,         0.0,         0.0,         0.0,         0.0,         0.0,         0.0
"Line.LN5683858-3"      ,   2,         0.0,         0.0
"Line.LN5920279-5"      ,   1,         0.0,         0.0,         0.0,         0.0,         0.0,         0.0
"Line.LN5920279-5"      ,   2,         0.0,         0.0
"Line.LN6439600-1"      ,   1,         0.0,         0.0,         0.0,         0.0,         0.0,         0.0
"Line.LN6439600-1"      ,   2,         0.0,         0.0
"Line.LN5589097-1"      ,   1,         0.0,         0.0,         0.0,         0.0,         0.0,         0.0
"Line.LN5589097-1"      ,   2,         0.0,         0.0
"Line.LN5651975-1"      ,   1,         0.0,         0.0,         0.0,         0.0,         0.0,         0.0
"Line.LN5651975-1"      ,   2,         0.0,         0.0
"Line.LN5865236-1"      ,   1,         0.0,         0.0,         0.0,         0.0,         0.0,         0.0
"Line.LN5865236-1"      ,   2,         0.0,         0.0
"Line.LN5593232-1"      ,   1,         0.0,         0.0,         0.0,         0.0,         0.0,         0.0
"Line.LN5593232-1"      ,   2,         0.0,         0.0
"Line.LN5740283-1"      ,   1,         0.0,         0.0,         0.0,         0.0,         0.0,         0.0
"Line.LN5740283-1"      ,   2,         0.0,         0.0
"Line.LN6106559-1"      ,   1,         0.0,         0.0,         0.0,         0.0,         0.0,         0.0
"Line.LN6106559-1"      ,   2,         0.0,         0.0
"Line.LN5714056-3"      ,   1,         0.0,         0.0,         0.0,         0.0,         0.0,         0.0
"Line.LN5714056-3"      ,   2,         0.0,         0.0
"Line.LN5985355-3"      ,   1,         0.0,         0.0,         0.0,         0.0,         0.0,         0.0
"Line.LN5985355-3"      ,   2,         0.0,         0.0
"Line.LN5531956-1"      ,   1,         0.0,         0.0,         0.0,         0.0,         0.0,         0.0
"Line.LN5531956-1"      ,   2,         0.0,         0.0
"Line.LN5650048-1"      ,   1,         0.0,         0.0,         0.0,         0.0,         0.0,         0.0
"Line.LN5650048-1"      ,   2,         0.0,         0.0
"Line.LN6290203-1"      ,   1,         0.0,         0.0,         0.0,         0.0,         0.0,         0.0
"Line.LN6290203-1"      ,   2,         0.0,         0.0
"Line.LN6134414-1"      ,   1,         0.0,         0.0,         0.0,         0.0,         0.0,         0.0
"Line.LN6134414-1"      ,   2,         0.0,         0.0
"Line.LN6259998-2"      ,   1,         0.0,         0.0,         0.0,         0.0,         0.0,         0.0
"Line.LN6259998-2"      ,   2,         0.0,         0.0
"Line.LN6078767-1"      ,   1,         0.0,         0.0,         0.0,         0.0,         0.0,         0.0
"Line.LN6078767-1"      ,   2,         0.0,         0.0
"Line.LN6017300-1"      ,   1,         0.0,         0.0,         0.0,         0.0,         0.0,         0.0
"Line.LN6017300-1"      ,   2,         0.0,         0.0
"Line.LN8979257-2"      ,   1,         0.0,         0.0,         0.0,         0.0,         0.0,         0.0
"Line.LN8979257-2"      ,   2,         0.0,         0.0
"Line.LN81048109-1"     ,   1,         0.0,         0.0,         0.0,         0.0,         0.0,         0.0
"Line.LN81048109-1"     ,   2,         0.0,         0.0
"Line.293471"           ,   1,         0.0,         0.0,         0.0,         0.0,         0.0,         0.0
"Line.293471"           ,   2,         0.0,         0.0
"Line.LN5534965-2"      ,   1,         0.0,         0.0,         0.0,         0.0,         0.0,         0.0
"Line.LN5534965-2"      ,   2,         0.0,         0.0
"Line.LN5655683-1"      ,   1,         0.0,         0.0,         0.0,         0.0,         0.0,         0.0
"Line.LN5655683-1"      ,   2,         0.0,         0.0
"Line.LN5686247-1"      ,   1,         0.0,         0.0,         0.0,         0.0,         0.0,         0.0
"Line.LN5686247-1"      ,   2,         0.0,         0.0
"Line.LN6048642-1"      ,   1,         0.0,         0.0,         0.0,         0.0,         0.0,         0.0
"Line.LN6048642-1"      ,   2,         0.0,         0.0
"Line.LN5928544-3"      ,   1,         0.0,         0.0,         0.0,         0.0,         0.0,         0.0
"Line.LN5928544-3"      ,   2,         0.0,         0.0
"Line.LN6108172-1"      ,   1,         0.0,         0.0,         0.0,         0.0,         0.0,         0.0
"Line.LN6108172-1"      ,   2,         0.0,         0.0
"Line.LN5532754-1"      ,   1,         0.0,         0.0,         0.0,         0.0,         0.0,         0.0
"Line.LN5532754-1"      ,   2,         0.0,         0.0
"Line.LN5591834-1"      ,   1,         0.0,         0.0,         0.0,         0.0,         0.0,         0.0
"Line.LN5591834-1"      ,   2,         0.0,         0.0
"Line.LN6347196-2"      ,   1,         0.0,         0.0,         0.0,         0.0,         0.0,         0.0
"Line.LN6347196-2"      ,   2,         0.0,         0.0
"Line.LN5532741-1"      ,   1,         0.0,         0.0,         0.0,         0.0,         0.0,         0.0
"Line.LN5532741-1"      ,   2,         0.0,         0.0
"Line.LN5804803-1"      ,   1,         0.0,         0.0,         0.0,         0.0,         0.0,         0.0
"Line.LN5804803-1"      ,   2,         0.0,         0.0
"Line.LN6169248-1"      ,   1,         0.0,         0.0,         0.0,         0.0,         0.0,         0.0
"Line.LN6169248-1"      ,   2,         0.0,         0.0
"Line.LN5532786-2"      ,   1,         0.0,         0.0,         0.0,         0.0,         0.0,         0.0
"Line.LN5532786-2"      ,   2,         0.0,         0.0
"Line.LN5744339-1"      ,   1,         0.0,         0.0,         0.0,         0.0,         0.0,         0.0
"Line.LN5744339-1"      ,   2,         0.0,         0.0
"Line.LN5531255-3"      ,   1,         0.0,         0.0,         0.0,         0.0,         0.0,         0.0
"Line.LN5531255-3"      ,   2,         0.0,         0.0
"Line.LN5926308-2"      ,   1,         0.0,         0.0,         0.0,         0.0,         0.0,         0.0
"Line.LN5926308-2"      ,   2,         0.0,         0.0
"Line.LN5683856-3"      ,   1,         0.0,         0.0,         0.0,         0.0,         0.0,         0.0
"Line.LN5683856-3"      ,   2,         0.0,         0.0
"Line.LN6171502-1"      ,   1,         0.0,         0.0,         0.0,         0.0,         0.0,         0.0
"Line.LN6171502-1"      ,   2,         0.0,         0.0
"Line.LN5593228-1"      ,   1,         0.0,         0.0,         0.0,         0.0,         0.0,         0.0
"Line.LN5593228-1"      ,   2,         0.0,         0.0
"Line.LN6380800-1"      ,   1,         0.0,         0.0,         0.0,         0.0,         0.0,         0.0
"Line.LN6380800-1"      ,   2,         0.0,         0.0
"Line.LN6199525-2"      ,   1,         0.0,         0.0,         0.0,         0.0,         0.0,         0.0
"Line.LN6199525-2"      ,   2,         0.0,         0.0
"Line.LN5772710-2"      ,   1,         0.0,         0.0,         0.0,         0.0,         0.0,         0.0
"Line.LN5772710-2"      ,   2,         0.0,         0.0
"Line.LN8961760-1"      ,   1,         0.0,         0.0,         0.0,         0.0,         0.0,         0.0
"Line.LN8961760-1"      ,   2,         0.0,         0.0
"Line.LN6047556-1"      ,   1,         0.0,         0.0,         0.0,         0.0,         0.0,         0.0
"Line.LN6047556-1"      ,   2,         0.0,         0.0
"Line.LN6138603-1"      ,   1,         0.0,         0.0,         0.0,         0.0,         0.0,         0.0
"Line.LN6138603-1"      ,   2,         0.0,         0.0
"Line.LN6108139-1"      ,   1,         0.0,         0.0,         0.0,         0.0,         0.0,         0.0
"Line.LN6108139-1"      ,   2,         0.0,         0.0
"Line.LN6388581-2"      ,   1,         0.0,         0.0,         0.0,         0.0,         0.0,         0.0
"Line.LN6388581-2"      ,   2,         0.0,         0.0
"Line.LN5774460-1"      ,   1,         0.0,         0.0,         0.0,         0.0,         0.0,         0.0
"Line.LN5774460-1"      ,   2,         0.0,         0.0
"Line.LN5624387-1"      ,   1,         0.0,         0.0,         0.0,         0.0,         0.0,         0.0
"Line.LN5624387-1"      ,   2,         0.0,         0.0
"Line.LN6137087-1"      ,   1,         0.0,         0.0,         0.0,         0.0,         0.0,         0.0
"Line.LN6137087-1"      ,   2,         0.0,         0.0
"Line.LN6077809-1"      ,   1,         0.0,         0.0,         0.0,         0.0,         0.0,         0.0
"Line.LN6077809-1"      ,   2,         0.0,         0.0
"Line.LN6440079-1"      ,   1,         0.0,         0.0,         0.0,         0.0,         0.0,         0.0
"Line.LN6440079-1"      ,   2,         0.0,         0.0
"Line.LN5804794-1"      ,   1,         0.0,         0.0,         0.0,         0.0,         0.0,         0.0
"Line.LN5804794-1"      ,   2,         0.0,         0.0
"Line.LN5654484-1"      ,   1,         0.0,         0.0,         0.0,         0.0,         0.0,         0.0
"Line.LN5654484-1"      ,   2,         0.0,         0.0
"Line.LN5774465-1"      ,   1,         0.0,         0.0,         0.0,         0.0,         0.0,         0.0
"Line.LN5774465-1"      ,   2,         0.0,         0.0
"Line.LN5473349-1"      ,   1,         0.0,         0.0,         0.0,         0.0,         0.0,         0.0
"Line.LN5473349-1"      ,   2,         0.0,         0.0
"Line.LN6169253-1"      ,   1,         0.0,         0.0,         0.0,         0.0,         0.0,         0.0
"Line.LN6169253-1"      ,   2,         0.0,         0.0
"Line.LN6350536-1"      ,   1,         0.0,         0.0,         0.0,         0.0,         0.0,         0.0
"Line.LN6350536-1"      ,   2,         0.0,         0.0
"Line.LN6048523-1"      ,   1,         0.0,         0.0,         0.0,         0.0,         0.0,         0.0
"Line.LN6048523-1"      ,   2,         0.0,         0.0
"Line.LN5594152-1"      ,   1,         0.0,         0.0,         0.0,         0.0,         0.0,         0.0
"Line.LN5594152-1"      ,   2,         0.0,         0.0
"Line.LN5865248-1"      ,   1,         0.0,         0.0,         0.0,         0.0,         0.0,         0.0
"Line.LN5865248-1"      ,   2,         0.0,         0.0
"Line.LN6046143-1"      ,   1,         0.0,         0.0,         0.0,         0.0,         0.0,         0.0
"Line.LN6046143-1"      ,   2,         0.0,         0.0
"Line.LN5803287-1"      ,   1,         0.0,         0.0,         0.0,         0.0,         0.0,         0.0
"Line.LN5803287-1"      ,   2,         0.0,         0.0
"Line.LN5589094-1"      ,   1,         0.0,         0.0,         0.0,         0.0,         0.0,         0.0
"Line.LN5589094-1"      ,   2,         0.0,         0.0
"Line.LN5954983-1"      ,   1,         0.0,         0.0,         0.0,         0.0,         0.0,         0.0
"Line.LN5954983-1"      ,   2,         0.0,         0.0
"Line.LN5924696-2"      ,   1,         0.0,         0.0,         0.0,         0.0,         0.0,         0.0
"Line.LN5924696-2"      ,   2,         0.0,         0.0
"Line.LN6506311-4"      ,   1,         0.0,         0.0,         0.0,         0.0,         0.0,         0.0
"Line.LN6506311-4"      ,   2,         0.0,         0.0
"Line.LN5653493-1"      ,   1,         0.0,         0.0,         0.0,         0.0,         0.0,         0.0
"Line.LN5653493-1"      ,   2,         0.0,         0.0
"Line.LN5684836-1"      ,   1,         0.0,         0.0,         0.0,         0.0,         0.0,         0.0
"Line.LN5684836-1"      ,   2,         0.0,         0.0
"Line.LN5715016-3"      ,   1,         0.0,         0.0,         0.0,         0.0,         0.0,         0.0
"Line.LN5715016-3"      ,   2,         0.0,         0.0
"Line.LN6138614-1"      ,   1,         0.0,         0.0,         0.0,         0.0,         0.0,         0.0
"Line.LN6138614-1"      ,   2,         0.0,         0.0
"Line.LN6077781-2"      ,   1,         0.0,         0.0,         0.0,         0.0,         0.0,         0.0
"Line.LN6077781-2"      ,   2,         0.0,         0.0
"Line.LN5675121-1"      ,   1,         0.0,         0.0,         0.0,         0.0,         0.0,         0.0
"Line.LN5675121-1"      ,   2,         0.0,         0.0
"Line.LN5773046-1"      ,   1,         0.0,         0.0,         0.0,         0.0,         0.0,         0.0
"Line.LN5773046-1"      ,   2,         0.0,         0.0
"Line.LN6380809-2"      ,   1,         0.0,         0.0,         0.0,         0.0,         0.0,         0.0
"Line.LN6380809-2"      ,   2,         0.0,         0.0
"Line.LN6018326-1"      ,   1,         0.0,         0.0,         0.0,         0.0,         0.0,         0.0
"Line.LN6018326-1"      ,   2,         0.0,         0.0
"Line.LN5472356-1"      ,   1,         0.0,         0.0,         0.0,         0.0,         0.0,         0.0
"Line.LN5472356-1"      ,   2,         0.0,         0.0
"Line.LN6139641-1"      ,   1,         0.0,         0.0,         0.0,         0.0,         0.0,         0.0
"Line.LN6139641-1"      ,   2,         0.0,         0.0
"Line.LN6018341-1"      ,   1,         0.0,         0.0,         0.0,         0.0,         0.0,         0.0
"Line.LN6018341-1"      ,   2,         0.0,         0.0
"Line.LN6017302-1"      ,   1,         0.0,         0.0,         0.0,         0.0,         0.0,         0.0
"Line.LN6017302-1"      ,   2,         0.0,         0.0
"Line.LN6199505-1"      ,   1,         0.0,         0.0,         0.0,         0.0,         0.0,         0.0
"Line.LN6199505-1"      ,   2,         0.0,         0.0
"Line.LN5682327-1"      ,   1,         0.0,         0.0,         0.0,         0.0,         0.0,         0.0
"Line.LN5682327-1"      ,   2,         0.0,         0.0
"Line.LN6290243-1"      ,   1,         0.0,         0.0,         0.0,         0.0,         0.0,         0.0
"Line.LN6290243-1"      ,   2,         0.0,         0.0
"Line.X8223_48332_SW"   ,   1,         0.0,         0.0,         0.0,         0.0,         0.0,         0.0
"Line.X8223_48332_SW"   ,   2,         0.0,         0.0
"Line.LN6413567-3"      ,   1,         0.0,         0.0,         0.0,         0.0,         0.0,         0.0
"Line.LN6413567-3"      ,   2,         0.0,         0.0
"Line.LN5591731-3"      ,   1,         0.0,         0.0,         0.0,         0.0,         0.0,         0.0
"Line.LN5591731-3"      ,   2,         0.0,         0.0
"Line.LN5653470-1"      ,   1,         0.0,         0.0,         0.0,         0.0,         0.0,         0.0
"Line.LN5653470-1"      ,   2,         0.0,         0.0
"Line.LN6017316-1"      ,   1,         0.0,         0.0,         0.0,         0.0,         0.0,         0.0
"Line.LN6017316-1"      ,   2,         0.0,         0.0
"Line.LN5926299-1"      ,   1,         0.0,         0.0,         0.0,         0.0,         0.0,         0.0
"Line.LN5926299-1"      ,   2,         0.0,         0.0
"Line.LN5683831-1"      ,   1,         0.0,         0.0,         0.0,         0.0,         0.0,         0.0
"Line.LN5683831-1"      ,   2,         0.0,         0.0
"Line.LN6352700-1"      ,   1,         0.0,         0.0,         0.0,         0.0,         0.0,         0.0
"Line.LN6352700-1"      ,   2,         0.0,         0.0
"Line.LN6047570-1"      ,   1,         0.0,         0.0,         0.0,         0.0,         0.0,         0.0
"Line.LN6047570-1"      ,   2,         0.0,         0.0
"Line.LN5624342-1"      ,   1,         0.0,         0.0,         0.0,         0.0,         0.0,         0.0
"Line.LN5624342-1"      ,   2,         0.0,         0.0
"Line.LN6259992-1"      ,   1,         0.0,         0.0,         0.0,         0.0,         0.0,         0.0
"Line.LN6259992-1"      ,   2,         0.0,         0.0
"Line.LN5841919-1"      ,   1,         0.0,         0.0,         0.0,         0.0,         0.0,         0.0
"Line.LN5841919-1"      ,   2,         0.0,         0.0
"Line.LN6380811-1"      ,   1,         0.0,         0.0,         0.0,         0.0,         0.0,         0.0
"Line.LN6380811-1"      ,   2,         0.0,         0.0
"Line.LN5683832-1"      ,   1,         0.0,         0.0,         0.0,         0.0,         0.0,         0.0
"Line.LN5683832-1"      ,   2,         0.0,         0.0
"Line.LN6077778-1"      ,   1,         0.0,         0.0,         0.0,         0.0,         0.0,         0.0
"Line.LN6077778-1"      ,   2,         0.0,         0.0
"Line.LN5561442-2"      ,   1,         0.0,         0.0,         0.0,         0.0,         0.0,         0.0
"Line.LN5561442-2"      ,   2,         0.0,         0.0
"Line.LN6259983-1"      ,   1,         0.0,         0.0,         0.0,         0.0,         0.0,         0.0
"Line.LN6259983-1"      ,   2,         0.0,         0.0
"Line.LN5865244-1"      ,   1,         0.0,         0.0,         0.0,         0.0,         0.0,         0.0
"Line.LN5865244-1"      ,   2,         0.0,         0.0
"Line.LN6350555-1"      ,   1,         0.0,         0.0,         0.0,         0.0,         0.0,         0.0
"Line.LN6350555-1"      ,   2,         0.0,         0.0
"Line.LN5714039-1"      ,   1,         0.0,         0.0,         0.0,         0.0,         0.0,         0.0
"Line.LN5714039-1"      ,   2,         0.0,         0.0
"Line.LN5889821-1"      ,   1,         0.0,         0.0,         0.0,         0.0,         0.0,         0.0
"Line.LN5889821-1"      ,   2,         0.0,         0.0
"Line.LN5804791-1"      ,   1,         0.0,         0.0,         0.0,         0.0,         0.0,         0.0
"Line.LN5804791-1"      ,   2,         0.0,         0.0
"Line.LN5653486-1"      ,   1,         0.0,         0.0,         0.0,         0.0,         0.0,         0.0
"Line.LN5653486-1"      ,   2,         0.0,         0.0
"Line.LN5926286-1"      ,   1,         0.0,         0.0,         0.0,         0.0,         0.0,         0.0
"Line.LN5926286-1"      ,   2,         0.0,         0.0
"Line.LN6318859-1"      ,   1,         0.0,         0.0,         0.0,         0.0,         0.0,         0.0
"Line.LN6318859-1"      ,   2,         0.0,         0.0
"Line.LN5926316-1"      ,   1,         0.0,         0.0,         0.0,         0.0,         0.0,         0.0
"Line.LN5926316-1"      ,   2,         0.0,         0.0
"Line.LN5591703-1"      ,   1,         0.0,         0.0,         0.0,         0.0,         0.0,         0.0
"Line.LN5591703-1"      ,   2,         0.0,         0.0
"Line.LN5531333-1"      ,   1,         0.0,         0.0,         0.0,         0.0,         0.0,         0.0
"Line.LN5531333-1"      ,   2,         0.0,         0.0
"Line.LN6047581-1"      ,   1,         0.0,         0.0,         0.0,         0.0,         0.0,         0.0
"Line.LN6047581-1"      ,   2,         0.0,         0.0
"Line.LN6349077-1"      ,   1,         0.0,         0.0,         0.0,         0.0,         0.0,         0.0
"Line.LN6349077-1"      ,   2,         0.0,         0.0
"Line.LN6350574-1"      ,   1,         0.0,         0.0,         0.0,         0.0,         0.0,         0.0
"Line.LN6350574-1"      ,   2,         0.0,         0.0
"Line.LN6320343-1"      ,   1,         0.0,         0.0,         0.0,         0.0,         0.0,         0.0
"Line.LN6320343-1"      ,   2,         0.0,         0.0
"Line.LN81048100-5"     ,   1,         0.0,         0.0,         0.0,         0.0,         0.0,         0.0
"Line.LN81048100-5"     ,   2,         0.0,         0.0
"Line.LN6348946-1"      ,   1,         0.0,         0.0,         0.0,         0.0,         0.0,         0.0
"Line.LN6348946-1"      ,   2,         0.0,         0.0
"Line.LN5744351-1"      ,   1,         0.0,         0.0,         0.0,         0.0,         0.0,         0.0
"Line.LN5744351-1"      ,   2,         0.0,         0.0
"Line.LN5472342-1"      ,   1,         0.0,         0.0,         0.0,         0.0,         0.0,         0.0
"Line.LN5472342-1"      ,   2,         0.0,         0.0
"Line.LN5621849-1"      ,   1,         0.0,         0.0,         0.0,         0.0,         0.0,         0.0
"Line.LN5621849-1"      ,   2,         0.0,         0.0
"Line.LN6379375-1"      ,   1,         0.0,         0.0,         0.0,         0.0,         0.0,         0.0
"Line.LN6379375-1"      ,   2,         0.0,         0.0
"Line.LN6028890-1"      ,   1,         0.0,         0.0,         0.0,         0.0,         0.0,         0.0
"Line.LN6028890-1"      ,   2,         0.0,         0.0
"Line.LN6380822-1"      ,   1,         0.0,         0.0,         0.0,         0.0,         0.0,         0.0
"Line.LN6380822-1"      ,   2,         0.0,         0.0
"Line.LN5835131-1"      ,   1,         0.0,         0.0,         0.0,         0.0,         0.0,         0.0
"Line.LN5835131-1"      ,   2,         0.0,         0.0
"Line.LN5803262-7"      ,   1,         0.0,         0.0,         0.0,         0.0,         0.0,         0.0
"Line.LN5803262-7"      ,   2,         0.0,         0.0
"Line.LN81048089-1"     ,   1,         0.0,         0.0,         0.0,         0.0,         0.0,         0.0
"Line.LN81048089-1"     ,   2,         0.0,         0.0
"Line.LN6201699-1"      ,   1,         0.0,         0.0,         0.0,         0.0,         0.0,         0.0
"Line.LN6201699-1"      ,   2,         0.0,         0.0
"Line.LN5746548-1"      ,   1,         0.0,         0.0,         0.0,         0.0,         0.0,         0.0
"Line.LN5746548-1"      ,   2,         0.0,         0.0
"Line.LN5835174-1"      ,   1,         0.0,         0.0,         0.0,         0.0,         0.0,         0.0
"Line.LN5835174-1"      ,   2,         0.0,         0.0
"Line.LN6505947-4"      ,   1,         0.0,         0.0,         0.0,         0.0,         0.0,         0.0
"Line.LN6505947-4"      ,   2,         0.0,         0.0
"Line.LN5683833-1"      ,   1,         0.0,         0.0,         0.0,         0.0,         0.0,         0.0
"Line.LN5683833-1"      ,   2,         0.0,         0.0
"Line.LN5561439-3"      ,   1,         0.0,         0.0,         0.0,         0.0,         0.0,         0.0
"Line.LN5561439-3"      ,   2,         0.0,         0.0
"Line.LN6109190-1"      ,   1,         0.0,         0.0,         0.0,         0.0,         0.0,         0.0
"Line.LN6109190-1"      ,   2,         0.0,         0.0
"Line.LN6258435-2"      ,   1,         0.0,         0.0,         0.0,         0.0,         0.0,         0.0
"Line.LN6258435-2"      ,   2,         0.0,         0.0
"Line.LN5804819-1"      ,   1,         0.0,         0.0,         0.0,         0.0,         0.0,         0.0
"Line.LN5804819-1"      ,   2,         0.0,         0.0
"Line.LN5593215-1"      ,   1,         0.0,         0.0,         0.0,         0.0,         0.0,         0.0
"Line.LN5593215-1"      ,   2,         0.0,         0.0
"Line.LN5833717-1"      ,   1,         0.0,         0.0,         0.0,         0.0,         0.0,         0.0
"Line.LN5833717-1"      ,   2,         0.0,         0.0
"Line.LN6199557-1"      ,   1,         0.0,         0.0,         0.0,         0.0,         0.0,         0.0
"Line.LN6199557-1"      ,   2,         0.0,         0.0
"Line.LN5744332-1"      ,   1,         0.0,         0.0,         0.0,         0.0,         0.0,         0.0
"Line.LN5744332-1"      ,   2,         0.0,         0.0
"Line.LN5558790-1"      ,   1,         0.0,         0.0,         0.0,         0.0,         0.0,         0.0
"Line.LN5558790-1"      ,   2,         0.0,         0.0
"Line.LN6078692-1"      ,   1,         0.0,         0.0,         0.0,         0.0,         0.0,         0.0
"Line.LN6078692-1"      ,   2,         0.0,         0.0
"Line.LN5956482-1"      ,   1,         0.0,         0.0,         0.0,         0.0,         0.0,         0.0
"Line.LN5956482-1"      ,   2,         0.0,         0.0
"Line.LN5593225-1"      ,   1,         0.0,         0.0,         0.0,         0.0,         0.0,         0.0
"Line.LN5593225-1"      ,   2,         0.0,         0.0
"Line.LN6900591-26"     ,   1,         0.0,         0.0,         0.0,         0.0,         0.0,         0.0
"Line.LN6900591-26"     ,   2,         0.0,         0.0
"Line.LN5952393-1"      ,   1,         0.0,         0.0,         0.0,         0.0,         0.0,         0.0
"Line.LN5952393-1"      ,   2,         0.0,         0.0
"Line.LN6350531-1"      ,   1,         0.0,         0.0,         0.0,         0.0,         0.0,         0.0
"Line.LN6350531-1"      ,   2,         0.0,         0.0
"Line.LN5965099-10"     ,   1,         0.0,         0.0,         0.0,         0.0,         0.0,         0.0
"Line.LN5965099-10"     ,   2,         0.0,         0.0
"Line.LN6047568-1"      ,   1,         0.0,         0.0,         0.0,         0.0,         0.0,         0.0
"Line.LN6047568-1"      ,   2,         0.0,         0.0
"Line.LN5926292-1"      ,   1,         0.0,         0.0,         0.0,         0.0,         0.0,         0.0
"Line.LN5926292-1"      ,   2,         0.0,         0.0
"Line.LN6380806-1"      ,   1,         0.0,         0.0,         0.0,         0.0,         0.0,         0.0
"Line.LN6380806-1"      ,   2,         0.0,         0.0
"Line.LN6341781-3"      ,   1,         0.0,         0.0,         0.0,         0.0,         0.0,         0.0
"Line.LN6341781-3"      ,   2,         0.0,         0.0
"Line.LN8979367-1"      ,   1,         0.0,         0.0,         0.0,         0.0,         0.0,         0.0
"Line.LN8979367-1"      ,   2,         0.0,         0.0
"Line.LN6018340-1"      ,   1,         0.0,         0.0,         0.0,         0.0,         0.0,         0.0
"Line.LN6018340-1"      ,   2,         0.0,         0.0
"Line.LN6380847-1"      ,   1,         0.0,         0.0,         0.0,         0.0,         0.0,         0.0
"Line.LN6380847-1"      ,   2,         0.0,         0.0
"Line.LN8961797-1"      ,   1,         0.0,         0.0,         0.0,         0.0,         0.0,         0.0
"Line.LN8961797-1"      ,   2,         0.0,         0.0
"Line.LN6077797-1"      ,   1,         0.0,         0.0,         0.0,         0.0,         0.0,         0.0
"Line.LN6077797-1"      ,   2,         0.0,         0.0
"Line.LN6077773-1"      ,   1,         0.0,         0.0,         0.0,         0.0,         0.0,         0.0
"Line.LN6077773-1"      ,   2,         0.0,         0.0
"Line.LN5837496-4"      ,   1,         0.0,         0.0,         0.0,         0.0,         0.0,         0.0
"Line.LN5837496-4"      ,   2,         0.0,         0.0
"Line.LN5623392-1"      ,   1,         0.0,         0.0,         0.0,         0.0,         0.0,         0.0
"Line.LN5623392-1"      ,   2,         0.0,         0.0
"Line.LN5624380-1"      ,   1,         0.0,         0.0,         0.0,         0.0,         0.0,         0.0
"Line.LN5624380-1"      ,   2,         0.0,         0.0
"Line.LN6422809-2"      ,   1,         0.0,         0.0,         0.0,         0.0,         0.0,         0.0
"Line.LN6422809-2"      ,   2,         0.0,         0.0
"Line.LN5799561-1"      ,   1,         0.0,         0.0,         0.0,         0.0,         0.0,         0.0
"Line.LN5799561-1"      ,   2,         0.0,         0.0
"Line.LN6229818-1"      ,   1,         0.0,         0.0,         0.0,         0.0,         0.0,         0.0
"Line.LN6229818-1"      ,   2,         0.0,         0.0
"Line.LN5593230-1"      ,   1,         0.0,         0.0,         0.0,         0.0,         0.0,         0.0
"Line.LN5593230-1"      ,   2,         0.0,         0.0
"Line.LN5563901-3"      ,   1,         0.0,         0.0,         0.0,         0.0,         0.0,         0.0
"Line.LN5563901-3"      ,   2,         0.0,         0.0
"Line.LN6320339-1"      ,   1,         0.0,         0.0,         0.0,         0.0,         0.0,         0.0
"Line.LN6320339-1"      ,   2,         0.0,         0.0
"Line.LN5986927-1"      ,   1,         0.0,         0.0,         0.0,         0.0,         0.0,         0.0
"Line.LN5986927-1"      ,   2,         0.0,         0.0
"Line.LN6047567-1"      ,   1,         0.0,         0.0,         0.0,         0.0,         0.0,         0.0
"Line.LN6047567-1"      ,   2,         0.0,         0.0
"Line.LN5714047-1"      ,   1,         0.0,         0.0,         0.0,         0.0,         0.0,         0.0
"Line.LN5714047-1"      ,   2,         0.0,         0.0
"Line.LN5563934-1"      ,   1,         0.0,         0.0,         0.0,         0.0,         0.0,         0.0
"Line.LN5563934-1"      ,   2,         0.0,         0.0
"Line.LN6169249-3"      ,   1,         0.0,         0.0,         0.0,         0.0,         0.0,         0.0
"Line.LN6169249-3"      ,   2,         0.0,         0.0
"Line.LN6230800-1"      ,   1,         0.0,         0.0,         0.0,         0.0,         0.0,         0.0
"Line.LN6230800-1"      ,   2,         0.0,         0.0
"Line.LN5985339-2"      ,   1,         0.0,         0.0,         0.0,         0.0,         0.0,         0.0
"Line.LN5985339-2"      ,   2,         0.0,         0.0
"Line.LN5898059-3"      ,   1,         0.0,         0.0,         0.0,         0.0,         0.0,         0.0
"Line.LN5898059-3"      ,   2,         0.0,         0.0
"Line.LN5956457-2"      ,   1,         0.0,         0.0,         0.0,         0.0,         0.0,         0.0
"Line.LN5956457-2"      ,   2,         0.0,         0.0
"Line.LN5865229-1"      ,   1,         0.0,         0.0,         0.0,         0.0,         0.0,         0.0
"Line.LN5865229-1"      ,   2,         0.0,         0.0
"Line.LN6018331-1"      ,   1,         0.0,         0.0,         0.0,         0.0,         0.0,         0.0
"Line.LN6018331-1"      ,   2,         0.0,         0.0
"Line.LN6199535-1"      ,   1,         0.0,         0.0,         0.0,         0.0,         0.0,         0.0
"Line.LN6199535-1"      ,   2,         0.0,         0.0
"Line.LN5502538-1"      ,   1,         0.0,         0.0,         0.0,         0.0,         0.0,         0.0
"Line.LN5502538-1"      ,   2,         0.0,         0.0
"Line.LN5742816-2"      ,   1,         0.0,         0.0,         0.0,         0.0,         0.0,         0.0
"Line.LN5742816-2"      ,   2,         0.0,         0.0
"Line.LN6229803-3"      ,   1,         0.0,         0.0,         0.0,         0.0,         0.0,         0.0
"Line.LN6229803-3"      ,   2,         0.0,         0.0
"Line.LN5986930-1"      ,   1,         0.0,         0.0,         0.0,         0.0,         0.0,         0.0
"Line.LN5986930-1"      ,   2,         0.0,         0.0
"Line.LN6350532-1"      ,   1,         0.0,         0.0,         0.0,         0.0,         0.0,         0.0
"Line.LN6350532-1"      ,   2,         0.0,         0.0
"Line.LN5588016-3"      ,   1,         0.0,         0.0,         0.0,         0.0,         0.0,         0.0
"Line.LN5588016-3"      ,   2,         0.0,         0.0
...
"Line.V7173_48332_SW"   ,   1,         0.0,         0.0,         0.0,         0.0,         0.0,         0.0
"Line.V7173_48332_SW"   ,   2,         0.0,         0.0
"Line.LN5534969-2"      ,   1,         0.0,         0.0,         0.0,         0.0,         0.0,         0.0
"Line.LN5534969-2"      ,   2,         0.0,         0.0
"Line.LN6015891-1"      ,   1,         0.0,         0.0,         0.0,         0.0,         0.0,         0.0
"Line.LN6015891-1"      ,   2,         0.0,         0.0
"Line.LN5683816-1"      ,   1,         0.0,         0.0,         0.0,         0.0,         0.0,         0.0
"Line.LN5683816-1"      ,   2,         0.0,         0.0
"Line.LN6199561-1"      ,   1,         0.0,         0.0,         0.0,         0.0,         0.0,         0.0
"Line.LN6199561-1"      ,   2,         0.0,         0.0
"Line.LN6900591-12"     ,   1,         0.0,         0.0,         0.0,         0.0,         0.0,         0.0
"Line.LN6900591-12"     ,   2,         0.0,         0.0
"Line.LN6411363-1"      ,   1,         0.0,         0.0,         0.0,         0.0,         0.0,         0.0
"Line.LN6411363-1"      ,   2,         0.0,         0.0
"Line.LN6108130-6"      ,   1,         0.0,         0.0,         0.0,         0.0,         0.0,         0.0
"Line.LN6108130-6"      ,   2,         0.0,         0.0
"Line.LN5837516-1"      ,   1,         0.0,         0.0,         0.0,         0.0,         0.0,         0.0
"Line.LN5837516-1"      ,   2,         0.0,         0.0
"Line.LN6017301-4"      ,   1,         0.0,         0.0,         0.0,         0.0,         0.0,         0.0
"Line.LN6017301-4"      ,   2,         0.0,         0.0
"Line.LN5981121-1"      ,   1,         0.0,         0.0,         0.0,         0.0,         0.0,         0.0
"Line.LN5981121-1"      ,   2,         0.0,         0.0
"Line.LN81048107-4"     ,   1,         0.0,         0.0,         0.0,         0.0,         0.0,         0.0
"Line.LN81048107-4"     ,   2,         0.0,         0.0
"Line.LN5472374-1"      ,   1,         0.0,         0.0,         0.0,         0.0,         0.0,         0.0
"Line.LN5472374-1"      ,   2,         0.0,         0.0
"Line.LN5746550-2"      ,   1,         0.0,         0.0,         0.0,         0.0,         0.0,         0.0
"Line.LN5746550-2"      ,   2,         0.0,         0.0
"Line.LN5561437-1"      ,   1,         0.0,         0.0,         0.0,         0.0,         0.0,         0.0
"Line.LN5561437-1"      ,   2,         0.0,         0.0
"Line.LN6439986-3"      ,   1,         0.0,         0.0,         0.0,         0.0,         0.0,         0.0
"Line.LN6439986-3"      ,   2,         0.0,         0.0
"Line.LN5744324-1"      ,   1,         0.0,         0.0,         0.0,         0.0,         0.0,         0.0
"Line.LN5744324-1"      ,   2,         0.0,         0.0
"Line.LN6376708-1"      ,   1,         0.0,         0.0,         0.0,         0.0,         0.0,         0.0
"Line.LN6376708-1"      ,   2,         0.0,         0.0
"Line.LN5895816-2"      ,   1,         0.0,         0.0,         0.0,         0.0,         0.0,         0.0
"Line.LN5895816-2"      ,   2,         0.0,         0.0
"Line.LN5593235-1"      ,   1,         0.0,         0.0,         0.0,         0.0,         0.0,         0.0
"Line.LN5593235-1"      ,   2,         0.0,         0.0
"Line.LN81354563-2"     ,   1,         0.0,         0.0,         0.0,         0.0,         0.0,         0.0
"Line.LN81354563-2"     ,   2,         0.0,         0.0
"Line.LN5866260-1"      ,   1,         0.0,         0.0,         0.0,         0.0,         0.0,         0.0
"Line.LN5866260-1"      ,   2,         0.0,         0.0
"Line.LN6018243-1"      ,   1,         0.0,         0.0,         0.0,         0.0,         0.0,         0.0
"Line.LN6018243-1"      ,   2,         0.0,         0.0
"Line.LN5928743-3"      ,   1,         0.0,         0.0,         0.0,         0.0,         0.0,         0.0
"Line.LN5928743-3"      ,   2,         0.0,         0.0
"Line.LN5957501-1"      ,   1,         0.0,         0.0,         0.0,         0.0,         0.0,         0.0
"Line.LN5957501-1"      ,   2,         0.0,         0.0
"Line.LN6379357-1"      ,   1,         0.0,         0.0,         0.0,         0.0,         0.0,         0.0
"Line.LN6379357-1"      ,   2,         0.0,         0.0
"Line.LN6291252-2"      ,   1,         0.0,         0.0,         0.0,         0.0,         0.0,         0.0
"Line.LN6291252-2"      ,   2,         0.0,         0.0
"Line.LN6440002-3"      ,   1,         0.0,         0.0,         0.0,         0.0,         0.0,         0.0
"Line.LN6440002-3"      ,   2,         0.0,         0.0
"Line.LN6076346-1"      ,   1,         0.0,         0.0,         0.0,         0.0,         0.0,         0.0
"Line.LN6076346-1"      ,   2,         0.0,         0.0
"Line.LN8978752-1"      ,   1,         0.0,         0.0,         0.0,         0.0,         0.0,         0.0
"Line.LN8978752-1"      ,   2,         0.0,         0.0
"Line.LN5621834-1"      ,   1,         0.0,         0.0,         0.0,         0.0,         0.0,         0.0
"Line.LN5621834-1"      ,   2,         0.0,         0.0
"Line.LN6108123-1"      ,   1,         0.0,         0.0,         0.0,         0.0,         0.0,         0.0
"Line.LN6108123-1"      ,   2,         0.0,         0.0
"Line.LN6505952-4"      ,   1,         0.0,         0.0,         0.0,         0.0,         0.0,         0.0
"Line.LN6505952-4"      ,   2,         0.0,         0.0
"Line.LN5835159-1"      ,   1,         0.0,         0.0,         0.0,         0.0,         0.0,         0.0
"Line.LN5835159-1"      ,   2,         0.0,         0.0
"Line.LN5698090-2"      ,   1,         0.0,         0.0,         0.0,         0.0,         0.0,         0.0
"Line.LN5698090-2"      ,   2,         0.0,         0.0
"Line.LN5714050-1"      ,   1,         0.0,         0.0,         0.0,         0.0,         0.0,         0.0
"Line.LN5714050-1"      ,   2,         0.0,         0.0
"Line.LN5502529-1"      ,   1,         0.0,         0.0,         0.0,         0.0,         0.0,         0.0
"Line.LN5502529-1"      ,   2,         0.0,         0.0
"Line.LN5594236-1"      ,   1,         0.0,         0.0,         0.0,         0.0,         0.0,         0.0
"Line.LN5594236-1"      ,   2,         0.0,         0.0
"Line.LN5593248-1"      ,   1,         0.0,         0.0,         0.0,         0.0,         0.0,         0.0
"Line.LN5593248-1"      ,   2,         0.0,         0.0
"Line.LN5865272-1"      ,   1,         0.0,         0.0,         0.0,         0.0,         0.0,         0.0
"Line.LN5865272-1"      ,   2,         0.0,         0.0
"Line.LN5924696-3"      ,   1,         0.0,         0.0,         0.0,         0.0,         0.0,         0.0
"Line.LN5924696-3"      ,   2,         0.0,         0.0
"Line.LN5589096-1"      ,   1,         0.0,         0.0,         0.0,         0.0,         0.0,         0.0
"Line.LN5589096-1"      ,   2,         0.0,         0.0
"Line.LN6017295-1"      ,   1,         0.0,         0.0,         0.0,         0.0,         0.0,         0.0
"Line.LN6017295-1"      ,   2,         0.0,         0.0
"Line.LN5970852-1"      ,   1,         0.0,         0.0,         0.0,         0.0,         0.0,         0.0
"Line.LN5970852-1"      ,   2,         0.0,         0.0
"Line.LN5683820-1"      ,   1,         0.0,         0.0,         0.0,         0.0,         0.0,         0.0
"Line.LN5683820-1"      ,   2,         0.0,         0.0
"Line.LN6286966-3"      ,   1,         0.0,         0.0,         0.0,         0.0,         0.0,         0.0
"Line.LN6286966-3"      ,   2,         0.0,         0.0
"Line.LN6167715-1"      ,   1,         0.0,         0.0,         0.0,         0.0,         0.0,         0.0
"Line.LN6167715-1"      ,   2,         0.0,         0.0
"Line.LN6108140-2"      ,   1,         0.0,         0.0,         0.0,         0.0,         0.0,         0.0
"Line.LN6108140-2"      ,   2,         0.0,         0.0
"Line.LN6228279-1"      ,   1,         0.0,         0.0,         0.0,         0.0,         0.0,         0.0
"Line.LN6228279-1"      ,   2,         0.0,         0.0
"Line.LN5803264-2"      ,   1,         0.0,         0.0,         0.0,         0.0,         0.0,         0.0
"Line.LN5803264-2"      ,   2,         0.0,         0.0
"Line.LN6132680-1"      ,   1,         0.0,         0.0,         0.0,         0.0,         0.0,         0.0
"Line.LN6132680-1"      ,   2,         0.0,         0.0
"Line.LN5531195-1"      ,   1,         0.0,         0.0,         0.0,         0.0,         0.0,         0.0
"Line.LN5531195-1"      ,   2,         0.0,         0.0
"Line.LN5985361-1"      ,   1,         0.0,         0.0,         0.0,         0.0,         0.0,         0.0
"Line.LN5985361-1"      ,   2,         0.0,         0.0
"Line.LN6102293-1"      ,   1,         0.0,         0.0,         0.0,         0.0,         0.0,         0.0
"Line.LN6102293-1"      ,   2,         0.0,         0.0
"Line.LN8989758-1"      ,   1,         0.0,         0.0,         0.0,         0.0,         0.0,         0.0
"Line.LN8989758-1"      ,   2,         0.0,         0.0
"Line.LN6229790-1"      ,   1,         0.0,         0.0,         0.0,         0.0,         0.0,         0.0
"Line.LN6229790-1"      ,   2,         0.0,         0.0
"Line.LN5956469-1"      ,   1,         0.0,         0.0,         0.0,         0.0,         0.0,         0.0
"Line.LN5956469-1"      ,   2,         0.0,         0.0
"Line.LN5803270-3"      ,   1,         0.0,         0.0,         0.0,         0.0,         0.0,         0.0
"Line.LN5803270-3"      ,   2,         0.0,         0.0
"Line.LN81048102-6"     ,   1,         0.0,         0.0,         0.0,         0.0,         0.0,         0.0
"Line.LN81048102-6"     ,   2,         0.0,         0.0
"Line.LN6440070-1"      ,   1,         0.0,         0.0,         0.0,         0.0,         0.0,         0.0
"Line.LN6440070-1"      ,   2,         0.0,         0.0
"Line.LN6048626-1"      ,   1,         0.0,         0.0,         0.0,         0.0,         0.0,         0.0
"Line.LN6048626-1"      ,   2,         0.0,         0.0
"Line.LN6076248-1"      ,   1,         0.0,         0.0,         0.0,         0.0,         0.0,         0.0
"Line.LN6076248-1"      ,   2,         0.0,         0.0
"Line.LN6137083-1"      ,   1,         0.0,         0.0,         0.0,         0.0,         0.0,         0.0
"Line.LN6137083-1"      ,   2,         0.0,         0.0
"Line.LN6286261-1"      ,   1,         0.0,         0.0,         0.0,         0.0,         0.0,         0.0
"Line.LN6286261-1"      ,   2,         0.0,         0.0
"Line.LN5653477-1"      ,   1,         0.0,         0.0,         0.0,         0.0,         0.0,         0.0
"Line.LN5653477-1"      ,   2,         0.0,         0.0
"Line.LN6078810-1"      ,   1,         0.0,         0.0,         0.0,         0.0,         0.0,         0.0
"Line.LN6078810-1"      ,   2,         0.0,         0.0
"Line.LN6199526-1"      ,   1,         0.0,         0.0,         0.0,         0.0,         0.0,         0.0
"Line.LN6199526-1"      ,   2,         0.0,         0.0
"Line.LN6108125-2"      ,   1,         0.0,         0.0,         0.0,         0.0,         0.0,         0.0
"Line.LN6108125-2"      ,   2,         0.0,         0.0
"Line.LN6108149-1"      ,   1,         0.0,         0.0,         0.0,         0.0,         0.0,         0.0
"Line.LN6108149-1"      ,   2,         0.0,         0.0
"Line.LN6230759-1"      ,   1,         0.0,         0.0,         0.0,         0.0,         0.0,         0.0
"Line.LN6230759-1"      ,   2,         0.0,         0.0
"Line.LN8979249-1"      ,   1,         0.0,         0.0,         0.0,         0.0,         0.0,         0.0
"Line.LN8979249-1"      ,   2,         0.0,         0.0
"Line.LN5865237-1"      ,   1,         0.0,         0.0,         0.0,         0.0,         0.0,         0.0
"Line.LN5865237-1"      ,   2,         0.0,         0.0
"Line.LN5706733-2"      ,   1,         0.0,         0.0,         0.0,         0.0,         0.0,         0.0
"Line.LN5706733-2"      ,   2,         0.0,         0.0
"Line.LN5745348-1"      ,   1,         0.0,         0.0,         0.0,         0.0,         0.0,         0.0
"Line.LN5745348-1"      ,   2,         0.0,         0.0
"Line.LN5898059-2"      ,   1,         0.0,         0.0,         0.0,         0.0,         0.0,         0.0
"Line.LN5898059-2"      ,   2,         0.0,         0.0
"Line.LN5744367-1"      ,   1,         0.0,         0.0,         0.0,         0.0,         0.0,         0.0
"Line.LN5744367-1"      ,   2,         0.0,         0.0
"Line.LN5773136-1"      ,   1,         0.0,         0.0,         0.0,         0.0,         0.0,         0.0
"Line.LN5773136-1"      ,   2,         0.0,         0.0
"Line.LN5472403-2"      ,   1,         0.0,         0.0,         0.0,         0.0,         0.0,         0.0
"Line.LN5472403-2"      ,   2,         0.0,         0.0
"Line.LN5712496-1"      ,   1,         0.0,         0.0,         0.0,         0.0,         0.0,         0.0
"Line.LN5712496-1"      ,   2,         0.0,         0.0
"Line.LN5772710-1"      ,   1,         0.0,         0.0,         0.0,         0.0,         0.0,         0.0
"Line.LN5772710-1"      ,   2,         0.0,         0.0
"Line.LN6139544-1"      ,   1,         0.0,         0.0,         0.0,         0.0,         0.0,         0.0
"Line.LN6139544-1"      ,   2,         0.0,         0.0
"Line.LN6015788-2"      ,   1,         0.0,         0.0,         0.0,         0.0,         0.0,         0.0
"Line.LN6015788-2"      ,   2,         0.0,         0.0
"Line.LN5591702-1"      ,   1,         0.0,         0.0,         0.0,         0.0,         0.0,         0.0
"Line.LN5591702-1"      ,   2,         0.0,         0.0
"Line.LN5986923-1"      ,   1,         0.0,         0.0,         0.0,         0.0,         0.0,         0.0
"Line.LN5986923-1"      ,   2,         0.0,         0.0
"Line.LN6301772-2"      ,   1,         0.0,         0.0,         0.0,         0.0,         0.0,         0.0
"Line.LN6301772-2"      ,   2,         0.0,         0.0
"Line.LN6001653-2"      ,   1,         0.0,         0.0,         0.0,         0.0,         0.0,         0.0
"Line.LN6001653-2"      ,   2,         0.0,         0.0
"Line.LN6017283-1"      ,   1,         0.0,         0.0,         0.0,         0.0,         0.0,         0.0
"Line.LN6017283-1"      ,   2,         0.0,         0.0
"Line.LN5686079-1"      ,   1,         0.0,         0.0,         0.0,         0.0,         0.0,         0.0
"Line.LN5686079-1"      ,   2,         0.0,         0.0
"Line.LN5527264-7"      ,   1,         0.0,         0.0,         0.0,         0.0,         0.0,         0.0
"Line.LN5527264-7"      ,   2,         0.0,         0.0
"Line.LN5683813-1"      ,   1,         0.0,         0.0,         0.0,         0.0,         0.0,         0.0
"Line.LN5683813-1"      ,   2,         0.0,         0.0
"Line.LN5986935-1"      ,   1,         0.0,         0.0,         0.0,         0.0,         0.0,         0.0
"Line.LN5986935-1"      ,   2,         0.0,         0.0
"Line.LN5956457-3"      ,   1,         0.0,         0.0,         0.0,         0.0,         0.0,         0.0
"Line.LN5956457-3"      ,   2,         0.0,         0.0
"Line.LN5654471-1"      ,   1,         0.0,         0.0,         0.0,         0.0,         0.0,         0.0
"Line.LN5654471-1"      ,   2,         0.0,         0.0
"Line.LN6409800-1"      ,   1,         0.0,         0.0,         0.0,         0.0,         0.0,         0.0
"Line.LN6409800-1"      ,   2,         0.0,         0.0
"Line.LN6411365-1"      ,   1,         0.0,         0.0,         0.0,         0.0,         0.0,         0.0
"Line.LN6411365-1"      ,   2,         0.0,         0.0
"Line.LN6320328-1"      ,   1,         0.0,         0.0,         0.0,         0.0,         0.0,         0.0
"Line.LN6320328-1"      ,   2,         0.0,         0.0
"Line.LN5712477-3"      ,   1,         0.0,         0.0,         0.0,         0.0,         0.0,         0.0
"Line.LN5712477-3"      ,   2,         0.0,         0.0
"Line.LN5621857-3"      ,   1,         0.0,         0.0,         0.0,         0.0,         0.0,         0.0
"Line.LN5621857-3"      ,   2,         0.0,         0.0
"Line.LN6440071-1"      ,   1,         0.0,         0.0,         0.0,         0.0,         0.0,         0.0
"Line.LN6440071-1"      ,   2,         0.0,         0.0
"Line.LN5472355-1"      ,   1,         0.0,         0.0,         0.0,         0.0,         0.0,         0.0
"Line.LN5472355-1"      ,   2,         0.0,         0.0
"Line.LN6351523-3"      ,   1,         0.0,         0.0,         0.0,         0.0,         0.0,         0.0
"Line.LN6351523-3"      ,   2,         0.0,         0.0
...
"Line.V9287_48332_SW"   ,   1,         0.0,         0.0,         0.0,         0.0,         0.0,         0.0
"Line.V9287_48332_SW"   ,   2,         0.0,         0.0
"Line.LN6019477-1"      ,   1,         0.0,         0.0,         0.0,         0.0,         0.0,         0.0
"Line.LN6019477-1"      ,   2,         0.0,         0.0
"Line.LN5593227-1"      ,   1,         0.0,         0.0,         0.0,         0.0,         0.0,         0.0
"Line.LN5593227-1"      ,   2,         0.0,         0.0
"Line.LN6409869-1"      ,   1,         0.0,         0.0,         0.0,         0.0,         0.0,         0.0
"Line.LN6409869-1"      ,   2,         0.0,         0.0
"Line.LN6321419-2"      ,   1,         0.0,         0.0,         0.0,         0.0,         0.0,         0.0
"Line.LN6321419-2"      ,   2,         0.0,         0.0
"Line.LN6348954-1"      ,   1,         0.0,         0.0,         0.0,         0.0,         0.0,         0.0
"Line.LN6348954-1"      ,   2,         0.0,         0.0
"Line.LN6201695-2"      ,   1,         0.0,         0.0,         0.0,         0.0,         0.0,         0.0
"Line.LN6201695-2"      ,   2,         0.0,         0.0
"Line.LN6048635-1"      ,   1,         0.0,         0.0,         0.0,         0.0,         0.0,         0.0
"Line.LN6048635-1"      ,   2,         0.0,         0.0
"Line.LN6199519-1"      ,   1,         0.0,         0.0,         0.0,         0.0,         0.0,         0.0
"Line.LN6199519-1"      ,   2,         0.0,         0.0
"Line.LN6505938-4"      ,   1,         0.0,         0.0,         0.0,         0.0,         0.0,         0.0
"Line.LN6505938-4"      ,   2,         0.0,         0.0
"Line.LN5472375-1"      ,   1,         0.0,         0.0,         0.0,         0.0,         0.0,         0.0
"Line.LN5472375-1"      ,   2,         0.0,         0.0
"Line.LN5835124-1"      ,   1,         0.0,         0.0,         0.0,         0.0,         0.0,         0.0
"Line.LN5835124-1"      ,   2,         0.0,         0.0
"Line.LN6103927-1"      ,   1,         0.0,         0.0,         0.0,         0.0,         0.0,         0.0
"Line.LN6103927-1"      ,   2,         0.0,         0.0
"Line.LN6138622-1"      ,   1,         0.0,         0.0,         0.0,         0.0,         0.0,         0.0
"Line.LN6138622-1"      ,   2,         0.0,         0.0
"Line.LN5776673-1"      ,   1,         0.0,         0.0,         0.0,         0.0,         0.0,         0.0
"Line.LN5776673-1"      ,   2,         0.0,         0.0
"Line.LN6074369-1"      ,   1,         0.0,         0.0,         0.0,         0.0,         0.0,         0.0
"Line.LN6074369-1"      ,   2,         0.0,         0.0
"Line.LN5621826-1"      ,   1,         0.0,         0.0,         0.0,         0.0,         0.0,         0.0
"Line.LN5621826-1"      ,   2,         0.0,         0.0
"Line.LN6506312-2"      ,   1,         0.0,         0.0,         0.0,         0.0,         0.0,         0.0
"Line.LN6506312-2"      ,   2,         0.0,         0.0
"Line.LN6046046-1"      ,   1,         0.0,         0.0,         0.0,         0.0,         0.0,         0.0
"Line.LN6046046-1"      ,   2,         0.0,         0.0
"Line.LN6138589-1"      ,   1,         0.0,         0.0,         0.0,         0.0,         0.0,         0.0
"Line.LN6138589-1"      ,   2,         0.0,         0.0
"Line.LN6258445-1"      ,   1,         0.0,         0.0,         0.0,         0.0,         0.0,         0.0
"Line.LN6258445-1"      ,   2,         0.0,         0.0
"Line.LN5653480-1"      ,   1,         0.0,         0.0,         0.0,         0.0,         0.0,         0.0
"Line.LN5653480-1"      ,   2,         0.0,         0.0
"Line.LN5717630-1"      ,   1,         0.0,         0.0,         0.0,         0.0,         0.0,         0.0
"Line.LN5717630-1"      ,   2,         0.0,         0.0
"Line.LN5956463-1"      ,   1,         0.0,         0.0,         0.0,         0.0,         0.0,         0.0
"Line.LN5956463-1"      ,   2,         0.0,         0.0
"Line.LN5744328-1"      ,   1,         0.0,         0.0,         0.0,         0.0,         0.0,         0.0
"Line.LN5744328-1"      ,   2,         0.0,         0.0
"Line.LN8979254-1"      ,   1,         0.0,         0.0,         0.0,         0.0,         0.0,         0.0
"Line.LN8979254-1"      ,   2,         0.0,         0.0
"Line.LN5620694-1"      ,   1,         0.0,         0.0,         0.0,         0.0,         0.0,         0.0
"Line.LN5620694-1"      ,   2,         0.0,         0.0
"Line.LN6048634-1"      ,   1,         0.0,         0.0,         0.0,         0.0,         0.0,         0.0
"Line.LN6048634-1"      ,   2,         0.0,         0.0
"Line.LN5895779-1"      ,   1,         0.0,         0.0,         0.0,         0.0,         0.0,         0.0
"Line.LN5895779-1"      ,   2,         0.0,         0.0
"Line.LN5951197-2"      ,   1,         0.0,         0.0,         0.0,         0.0,         0.0,         0.0
"Line.LN5951197-2"      ,   2,         0.0,         0.0
"Line.LN5563942-3"      ,   1,         0.0,         0.0,         0.0,         0.0,         0.0,         0.0
"Line.LN5563942-3"      ,   2,         0.0,         0.0
"Line.LN5835123-1"      ,   1,         0.0,         0.0,         0.0,         0.0,         0.0,         0.0
"Line.LN5835123-1"      ,   2,         0.0,         0.0
"Line.LN5956483-1"      ,   1,         0.0,         0.0,         0.0,         0.0,         0.0,         0.0
"Line.LN5956483-1"      ,   2,         0.0,         0.0
"Line.LN6291153-1"      ,   1,         0.0,         0.0,         0.0,         0.0,         0.0,         0.0
"Line.LN6291153-1"      ,   2,         0.0,         0.0
"Line.LN5683841-1"      ,   1,         0.0,         0.0,         0.0,         0.0,         0.0,         0.0
"Line.LN5683841-1"      ,   2,         0.0,         0.0
"Line.LN5804802-1"      ,   1,         0.0,         0.0,         0.0,         0.0,         0.0,         0.0
"Line.LN5804802-1"      ,   2,         0.0,         0.0
"Line.LN6167753-1"      ,   1,         0.0,         0.0,         0.0,         0.0,         0.0,         0.0
"Line.LN6167753-1"      ,   2,         0.0,         0.0
"Line.LN6047569-1"      ,   1,         0.0,         0.0,         0.0,         0.0,         0.0,         0.0
"Line.LN6047569-1"      ,   2,         0.0,         0.0
"Line.LN6229809-1"      ,   1,         0.0,         0.0,         0.0,         0.0,         0.0,         0.0
"Line.LN6229809-1"      ,   2,         0.0,         0.0
"Line.LN5804781-1"      ,   1,         0.0,         0.0,         0.0,         0.0,         0.0,         0.0
"Line.LN5804781-1"      ,   2,         0.0,         0.0
"Line.LN6352701-1"      ,   1,         0.0,         0.0,         0.0,         0.0,         0.0,         0.0
"Line.LN6352701-1"      ,   2,         0.0,         0.0
"Line.LN5955074-2"      ,   1,         0.0,         0.0,         0.0,         0.0,         0.0,         0.0
"Line.LN5955074-2"      ,   2,         0.0,         0.0
"Line.LN6229805-1"      ,   1,         0.0,         0.0,         0.0,         0.0,         0.0,         0.0
"Line.LN6229805-1"      ,   2,         0.0,         0.0
"Line.LN6411376-1"      ,   1,         0.0,         0.0,         0.0,         0.0,         0.0,         0.0
"Line.LN6411376-1"      ,   2,         0.0,         0.0
"Line.LN5654485-1"      ,   1,         0.0,         0.0,         0.0,         0.0,         0.0,         0.0
"Line.LN5654485-1"      ,   2,         0.0,         0.0
"Line.LN5746550-3"      ,   1,         0.0,         0.0,         0.0,         0.0,         0.0,         0.0
"Line.LN5746550-3"      ,   2,         0.0,         0.0
"Line.LN6232159-1"      ,   1,         0.0,         0.0,         0.0,         0.0,         0.0,         0.0
"Line.LN6232159-1"      ,   2,         0.0,         0.0
"Line.LN6412346-1"      ,   1,         0.0,         0.0,         0.0,         0.0,         0.0,         0.0
"Line.LN6412346-1"      ,   2,         0.0,         0.0
"Line.LN6350548-1"      ,   1,         0.0,         0.0,         0.0,         0.0,         0.0,         0.0
"Line.LN6350548-1"      ,   2,         0.0,         0.0
"Line.LN6106658-1"      ,   1,         0.0,         0.0,         0.0,         0.0,         0.0,         0.0
"Line.LN6106658-1"      ,   2,         0.0,         0.0
"Line.LN6047554-1"      ,   1,         0.0,         0.0,         0.0,         0.0,         0.0,         0.0
"Line.LN6047554-1"      ,   2,         0.0,         0.0
"Line.LN5956458-1"      ,   1,         0.0,         0.0,         0.0,         0.0,         0.0,         0.0
"Line.LN5956458-1"      ,   2,         0.0,         0.0
...